SOL 101 
CEND    
DISPLACEMENT = ALL
ELFORCE = ALL
SPCFORCES = ALL
STRESS = ALL
SUBCASE 1
    LABEL = Load Case 1
    SPC = 1
    LOAD = 2
    ANALYSIS = STATICS
BEGIN BULK
PARAM,POST,-1
GRID           1        30503.0010030.00    0.00
GRID           2        26423.0010030.00    0.00
GRID           3        21323.0010030.00    0.00
GRID           4        16563.0010030.00    0.00
GRID           5        11803.0010030.00    0.00
GRID           6         6703.0010030.00    0.00
GRID           7         2623.0010030.00    0.00
GRID           8        30503.00 6630.00    0.00
GRID           9        26423.00 6630.00    0.00
GRID          10        21323.00 6630.00    0.00
GRID          11        16563.00 6630.00    0.00
GRID          12        11803.00 6630.00    0.00
GRID          13         6703.00 6630.00    0.00
GRID          14         2623.00 6630.00    0.00
GRID          15        30503.00 3230.00    0.00
GRID          16        26423.00 3230.00    0.00
GRID          17        21323.00 3230.00    0.00
GRID          18        16563.00 3230.00    0.00
GRID          19        11803.00 3230.00    0.00
GRID          20         6703.00 3230.00    0.00
$ ... 9135 like lines cut
CBAR        6641       1    3052    3053    0.00    0.00    1.00     BGG
CBAR           2      19      45      43   -0.51    0.00    0.86     BGG
CBAR           3      19      45      44    0.00    0.58    0.82     BGG
CBAR        6638       1     575    3050    0.00    0.00    1.00     BGG
CBAR           5      19      48      46   -0.43    0.00    0.90     BGG
CBAR           6      19      48      43    0.51    0.00    0.86     BGG
CBAR           7      19      48      47    0.00    0.58    0.82     BGG
CBAR        6635       5    3047    3048    0.00    0.00    1.00     BGG
CBAR           9      19      51      49   -0.45    0.00    0.89     BGG
CBAR          10      19      51      46    0.43    0.00    0.90     BGG
CBAR          11      19      51      50    0.00    0.58    0.82     BGG
CBAR        6632       5     574    3045    0.00    0.00    1.00     BGG
CBAR          13      19      54      52   -0.45    0.00    0.89     BGG
CBAR          14      19      54      49    0.45    0.00    0.89     BGG
CBAR          15      19      54      53    0.00    0.58    0.82     BGG
CBAR        6629       2    3042    3043    0.00    0.00    1.00     BGG
CBAR          17      19      57      55   -0.43    0.00    0.90     BGG
CBAR          18      19      57      52    0.45    0.00    0.89     BGG
CBAR          19      19      57      56    0.00    0.58    0.82     BGG
CBAR        6626       2     573    3040    0.00    0.00    1.00     BGG
$ ... 11488 like lines cut
PBAR           1       1   697.0 6.288+7186400.0     1.0     0.0        +       
+          325.0     0.0   300.0    25.0     0.0     0.0     0.0     0.0+       
+            0.0     0.0     0.0
PBAR           2       2  1393.01.2576+8372800.0     1.0     0.0        +       
+          325.0   325.0   325.0   325.0     0.0     0.0     0.0     0.0+       
+            0.0     0.0     0.0
PBAR          10      10  1393.01.2576+8372800.0     1.0     0.0        +       
+          325.0   325.0   325.0   325.0     0.0     0.0     0.0     0.0+       
+            0.0     0.0     0.0
PBAR           8       8  1393.01.2576+8372800.0     1.0     0.0        +       
+          325.0   325.0   325.0   325.0     0.0     0.0     0.0     0.0+       
+            0.0     0.0     0.0
PBAR           9       9  1393.05.0192+8372800.0     1.0     0.0        +       
+          625.0   300.0   600.0   325.0     0.0     0.0     0.0     0.0+       
+            0.0     0.0     0.0
PBAR          16      16  1752.03410000.1180000.     1.0     0.0        +       
+          330.0   330.0   330.0   330.0     0.0     0.0     0.0     0.0+       
+            0.0     0.0     0.0
PBAR           3       3   850.0 7.685+7318000.0     1.0     0.0        +       
+          325.0     0.0   300.0    25.0     0.0     0.0     0.0     0.0+       
+            0.0     0.0     0.0
PBAR           4       4  1700.0 1.537+8636000.0     1.0     0.0        +       
+          325.0   325.0   325.0   325.0     0.0     0.0     0.0     0.0+       
+            0.0     0.0     0.0
PBAR           5       5  1000.02100000.970000.0     1.0     0.0        +       
+           63.0    38.0    63.0    38.0     0.0     0.0     0.0     0.0+       
+            0.0     0.0     0.0
PBAR          11      11  1454.01.2681+8740000.0     1.0     0.0        +       
+          330.0     0.0   300.0    30.0     0.0     0.0     0.0     0.0+       
+            0.0     0.0     0.0
PBAR          12      12  2908.02.5363+81480000.     1.0     0.0        +       
+          330.0   330.0   330.0   330.0     0.0     0.0     0.0     0.0+       
+            0.0     0.0     0.0
PBAR          15      15  3220.09070000.9070000.     1.0     0.0        +       
+           63.0    63.0    63.0    63.0     0.0     0.0     0.0     0.0+       
+            0.0     0.0     0.0
PBAR           7       7  2290.0 8.255+8816000.0     1.0     0.0        +       
+          625.0   300.0   600.0   325.0     0.0     0.0     0.0     0.0+       
+            0.0     0.0     0.0
PBAR          14      14  7956.05.0484+9 1.018+7     1.0     0.0        +       
+          815.0   300.0   340.0   740.0     0.0     0.0     0.0     0.0+       
+            0.0     0.0     0.0
PBAR           6       6  2290.02.0699+8816000.0     1.0     0.0        +       
+          325.0   325.0   325.0   325.0     0.0     0.0     0.0     0.0+       
+            0.0     0.0     0.0
PBAR          13      13  2181.01.5798+81170000.     1.0     0.0        +       
+          330.0     0.0   300.0    30.0     0.0     0.0     0.0     0.0+       
+            0.0     0.0     0.0
PBAR          19      21  727.04392175.1392175.1586401.4     0.0       

PBARL         17      17             ROD                                +       
+            8.0       
PBARL         18      19             ROD                                +       
+           14.2       
PBARL         37      20             BAR                                +       
+           81.1   114.6       
MAT1          14206800.0        0.29    2.1-8   1.17-5                  
MAT4          14    45.0           2.1-8                           
MAT1          16206800.0        0.29    3.21-8  1.17-5                  
MAT4          16    45.0          2.53-8                                
MAT1          17206800.0        0.29    1.3-8   1.17-5                  
MAT4          17    45.0           1.3-8                                
MAT1          15206800.0        0.29    3.15-8  1.17-5                  
MAT4          15    45.0          3.15-8                                
MAT1          20206800.0        0.29    1.0-8   1.17-5                  
MAT4          20    45.0           1.0-8                                
MAT1           3206800.0        0.29    1.13-8  1.17-5                  
MAT4           3    45.0          1.13-8                                
MAT1           4206800.0        0.29    1.117-8 1.17-5                  
MAT4           4    45.0         1.117-8                                
MAT1           5206800.0        0.29    9.84-9  1.17-5                  
MAT4           5    45.0          9.84-9                                
MAT1           1206800.0        0.29    1.171-8 1.17-5                  
MAT4           1    45.0         1.171-8                                
MAT1           2206800.0        0.29    1.211-8 1.17-5                  
MAT4           2    45.0         1.211-8                                
$ ... 20 like lines cut
SPC            1       1  123456    0.00
SPC            1       2  123456    0.00
SPC            1       3  123456    0.00
SPC            1       4  123456    0.00
SPC            1       5  123456    0.00
SPC            1       6  123456    0.00
SPC            1       7  123456    0.00
SPC            1       8  123456    0.00
SPC            1       9  123456    0.00
SPC            1      10  123456    0.00
SPC            1      11  123456    0.00
SPC            1      12  123456    0.00
SPC            1      13  123456    0.00
SPC            1      14  123456    0.00
SPC            1      15  123456    0.00
SPC            1      16  123456    0.00
SPC            1      17  123456    0.00
SPC            1      18  123456    0.00
SPC            1      19  123456    0.00
SPC            1      20  123456    0.00
$ ... 22 like lines cut
GRAV           2         9800.00    0.02    0.02   -1.00
ENDDATA
